<?xml version="1.0" encoding="UTF-8"?>

<!-- generated on Thu Mar  2 02:43:31 2017 by SUMO netconvert Version 0.28.0
<?xml version="1.0" encoding="UTF-8"?>

<configuration xmlns:xsi="http://www.w3.org/2001/XMLSchema-instance" xsi:noNamespaceSchemaLocation="http://sumo.dlr.de/xsd/netconvertConfiguration.xsd">

    <input>
        <osm-files value="map.osm"/>
    </input>

    <output>
        <output-file value="map.net.xml"/>
    </output>

    <projection>
        <proj.utm value="true"/>
    </projection>

</configuration>
-->

<net version="0.27" xmlns:xsi="http://www.w3.org/2001/XMLSchema-instance" xsi:noNamespaceSchemaLocation="http://sumo.dlr.de/xsd/net_file.xsd">

    <location netOffset="-545167.50,-4483063.92" convBoundary="0.00,0.00,1635.44,1045.20" origBoundary="-74.466911,40.496993,-74.447657,40.506441" projParameter="+proj=utm +zone=18 +ellps=WGS84 +datum=WGS84 +units=m +no_defs"/>

    <type id="highway.bridleway" priority="1" numLanes="1" speed="2.78" allow="pedestrian" oneway="1" width="2.00"/>
    <type id="highway.bus_guideway" priority="1" numLanes="1" speed="8.33" allow="bus" oneway="1"/>
    <type id="highway.cycleway" priority="1" numLanes="1" speed="5.56" allow="bicycle" oneway="0" width="1.00"/>
    <type id="highway.footway" priority="1" numLanes="1" speed="2.78" allow="pedestrian" oneway="1" width="2.00"/>
    <type id="highway.ford" priority="1" numLanes="1" speed="2.78" allow="army" oneway="0"/>
    <type id="highway.living_street" priority="3" numLanes="1" speed="2.78" disallow="tram rail_urban rail rail_electric ship" oneway="0"/>
    <type id="highway.motorway" priority="13" numLanes="2" speed="44.44" allow="private emergency authority army vip passenger hov taxi bus coach delivery truck trailer motorcycle evehicle custom1 custom2" oneway="1"/>
    <type id="highway.motorway_link" priority="12" numLanes="1" speed="22.22" allow="private emergency authority army vip passenger hov taxi bus coach delivery truck trailer motorcycle evehicle custom1 custom2" oneway="1"/>
    <type id="highway.path" priority="1" numLanes="1" speed="2.78" allow="bicycle pedestrian" oneway="1" width="2.00"/>
    <type id="highway.pedestrian" priority="1" numLanes="1" speed="2.78" allow="pedestrian" oneway="1" width="2.00"/>
    <type id="highway.primary" priority="9" numLanes="2" speed="27.78" disallow="tram rail_urban rail rail_electric ship" oneway="0"/>
    <type id="highway.primary_link" priority="8" numLanes="1" speed="22.22" disallow="tram rail_urban rail rail_electric ship" oneway="0"/>
    <type id="highway.raceway" priority="14" numLanes="2" speed="83.33" allow="vip" oneway="0"/>
    <type id="highway.residential" priority="4" numLanes="1" speed="13.89" disallow="tram rail_urban rail rail_electric ship" oneway="0"/>
    <type id="highway.secondary" priority="7" numLanes="2" speed="27.78" disallow="tram rail_urban rail rail_electric ship" oneway="0"/>
    <type id="highway.secondary_link" priority="6" numLanes="1" speed="22.22" disallow="tram rail_urban rail rail_electric ship" oneway="0"/>
    <type id="highway.service" priority="2" numLanes="1" speed="5.56" allow="delivery bicycle pedestrian" oneway="0"/>
    <type id="highway.services" priority="1" numLanes="1" speed="8.33" disallow="tram rail_urban rail rail_electric ship" oneway="0"/>
    <type id="highway.stairs" priority="1" numLanes="1" speed="1.39" allow="pedestrian" oneway="1" width="2.00"/>
    <type id="highway.step" priority="1" numLanes="1" speed="1.39" allow="pedestrian" oneway="1" width="2.00"/>
    <type id="highway.steps" priority="1" numLanes="1" speed="1.39" allow="pedestrian" oneway="1" width="2.00"/>
    <type id="highway.tertiary" priority="6" numLanes="1" speed="22.22" disallow="tram rail_urban rail rail_electric ship" oneway="0"/>
    <type id="highway.tertiary_link" priority="5" numLanes="1" speed="22.22" disallow="tram rail_urban rail rail_electric ship" oneway="0"/>
    <type id="highway.track" priority="1" numLanes="1" speed="5.56" disallow="tram rail_urban rail rail_electric ship" oneway="0"/>
    <type id="highway.trunk" priority="11" numLanes="2" speed="27.78" disallow="tram rail_urban rail rail_electric bicycle pedestrian ship" oneway="0"/>
    <type id="highway.trunk_link" priority="10" numLanes="1" speed="22.22" disallow="tram rail_urban rail rail_electric bicycle pedestrian ship" oneway="0"/>
    <type id="highway.unclassified" priority="5" numLanes="1" speed="13.89" disallow="tram rail_urban rail rail_electric ship" oneway="0"/>
    <type id="highway.unsurfaced" priority="1" numLanes="1" speed="8.33" disallow="tram rail_urban rail rail_electric ship" oneway="0"/>
    <type id="railway.light_rail" priority="15" numLanes="1" speed="27.78" allow="rail_urban" oneway="1"/>
    <type id="railway.preserved" priority="15" numLanes="1" speed="27.78" allow="rail" oneway="1"/>
    <type id="railway.rail" priority="15" numLanes="1" speed="83.33" allow="rail rail_electric" oneway="1"/>
    <type id="railway.subway" priority="15" numLanes="1" speed="27.78" allow="rail_urban" oneway="1"/>
    <type id="railway.tram" priority="15" numLanes="1" speed="13.89" allow="tram" oneway="1"/>

    <edge id=":104137458_0" function="internal">
        <lane id=":104137458_0_0" index="0" allow="delivery bicycle pedestrian" speed="9.73" length="6.02" shape="652.67,545.25 651.13,544.39 649.96,544.43 649.16,545.35 648.75,547.17"/>
    </edge>
    <edge id=":104137458_1" function="internal">
        <lane id=":104137458_1_0" index="0" disallow="tram rail_urban rail rail_electric ship" speed="18.05" length="11.37" shape="652.67,545.25 650.13,543.80 647.50,543.18 644.78,543.39 641.96,544.44"/>
    </edge>
    <edge id=":104137458_2" function="internal">
        <lane id=":104137458_2_0" index="0" disallow="tram rail_urban rail rail_electric ship" speed="18.05" length="13.48" shape="652.67,545.25 649.73,542.38 648.82,539.72 649.96,537.28 653.13,535.06"/>
    </edge>
    <edge id=":104137458_3" function="internal">
        <lane id=":104137458_3_0" index="0" disallow="tram rail_urban rail rail_electric ship" speed="13.89" length="4.82" shape="652.67,545.25 652.18,543.85 652.34,542.94 653.17,542.53 654.65,542.61"/>
    </edge>
    <edge id=":104137458_4" function="internal">
        <lane id=":104137458_4_0" index="0" disallow="tram rail_urban rail rail_electric ship" speed="18.05" length="6.07" shape="654.61,538.01 653.25,538.99 652.80,540.08 653.27,541.29 654.65,542.61"/>
    </edge>
    <edge id=":104137458_5" function="internal">
        <lane id=":104137458_5_0" index="0" allow="delivery bicycle pedestrian" speed="13.89" length="11.37" shape="654.61,538.01 652.29,539.57 650.54,541.61 649.36,544.15 648.75,547.17"/>
    </edge>
    <edge id=":104137458_6" function="internal">
        <lane id=":104137458_6_0" index="0" disallow="tram rail_urban rail rail_electric ship" speed="22.22" length="14.20" shape="654.61,538.01 641.96,544.44"/>
    </edge>
    <edge id=":104137458_7" function="internal">
        <lane id=":104137458_7_0" index="0" disallow="tram rail_urban rail rail_electric ship" speed="22.22" length="2.41" shape="654.61,538.01 653.14,537.83 652.40,537.28"/>
    </edge>
    <edge id=":104137458_16" function="internal">
        <lane id=":104137458_16_0" index="0" speed="22.22" length="2.41" shape="652.40,537.28 652.40,536.36 653.13,535.06"/>
    </edge>
    <edge id=":104137458_8" function="internal">
        <lane id=":104137458_8_0" index="0" disallow="tram rail_urban rail rail_electric ship" speed="22.22" length="14.22" shape="640.45,541.51 653.13,535.06"/>
    </edge>
    <edge id=":104137458_9" function="internal">
        <lane id=":104137458_9_0" index="0" disallow="tram rail_urban rail rail_electric ship" speed="18.05" length="7.23" shape="640.45,541.51 644.18,540.12 647.42,539.87"/>
    </edge>
    <edge id=":104137458_10" function="internal">
        <lane id=":104137458_10_0" index="0" allow="delivery bicycle pedestrian" speed="13.89" length="6.23" shape="640.45,541.51 644.48,540.06 646.40,540.39"/>
    </edge>
    <edge id=":104137458_11" function="internal">
        <lane id=":104137458_11_0" index="0" disallow="tram rail_urban rail rail_electric ship" speed="22.22" length="2.41" shape="640.45,541.51 641.93,541.68 642.67,542.22"/>
    </edge>
    <edge id=":104137458_17" function="internal">
        <lane id=":104137458_17_0" index="0" speed="18.05" length="7.85" shape="647.42,539.87 647.79,539.84 651.28,540.68 654.65,542.61"/>
    </edge>
    <edge id=":104137458_18" function="internal">
        <lane id=":104137458_18_0" index="0" speed="13.89" length="7.85" shape="646.40,540.39 647.20,540.53 648.62,542.90 648.75,547.17"/>
    </edge>
    <edge id=":104137458_19" function="internal">
        <lane id=":104137458_19_0" index="0" speed="22.22" length="2.41" shape="642.67,542.22 642.68,543.14 641.96,544.44"/>
    </edge>
    <edge id=":104137458_12" function="internal">
        <lane id=":104137458_12_0" index="0" disallow="tram rail_urban rail rail_electric ship" speed="13.89" length="5.95" shape="645.46,546.84 645.41,545.03 644.81,544.03 643.66,543.83 641.96,544.44"/>
    </edge>
    <edge id=":104137458_13" function="internal">
        <lane id=":104137458_13_0" index="0" disallow="tram rail_urban rail rail_electric ship" speed="13.89" length="14.68" shape="645.46,546.84 646.26,542.97 647.80,539.73 650.09,537.09 653.13,535.06"/>
    </edge>
    <edge id=":104137458_14" function="internal">
        <lane id=":104137458_14_0" index="0" disallow="tram rail_urban rail rail_electric ship" speed="9.73" length="13.95" shape="645.46,546.84 646.43,542.69 648.28,540.61 651.03,540.58 654.65,542.61"/>
    </edge>
    <edge id=":104137458_15" function="internal">
        <lane id=":104137458_15_0" index="0" allow="delivery bicycle pedestrian" speed="5.56" length="4.82" shape="645.46,546.84 646.41,545.69 647.27,545.36 648.05,545.86 648.75,547.17"/>
    </edge>
    <edge id=":104164654_0" function="internal">
        <lane id=":104164654_0_0" index="0" allow="delivery bicycle pedestrian" speed="5.56" length="4.82" shape="537.22,1036.74 538.55,1037.41 539.06,1038.18 538.75,1039.04 537.63,1040.02"/>
    </edge>
    <edge id=":104210089_0" function="internal">
        <lane id=":104210089_0_0" index="0" disallow="tram rail_urban rail rail_electric ship" speed="13.89" length="4.96" shape="1130.86,321.65 1129.68,320.99 1128.56,320.85 1127.50,321.25 1126.51,322.17"/>
    </edge>
    <edge id=":104210089_1" function="internal">
        <lane id=":104210089_1_0" index="0" disallow="tram rail_urban rail rail_electric ship" speed="13.89" length="8.79" shape="1130.86,321.65 1128.79,320.08 1127.44,318.84 1126.48,317.33 1125.58,314.92"/>
    </edge>
    <edge id=":104210089_2" function="internal">
        <lane id=":104210089_2_0" index="0" disallow="tram rail_urban rail rail_electric ship" speed="13.89" length="2.41" shape="1130.86,321.65 1130.37,320.24 1130.55,319.33"/>
    </edge>
    <edge id=":104210089_9" function="internal">
        <lane id=":104210089_9_0" index="0" speed="13.89" length="2.41" shape="1130.55,319.33 1131.37,318.93 1132.86,319.02"/>
    </edge>
    <edge id=":104210089_3" function="internal">
        <lane id=":104210089_3_0" index="0" disallow="tram rail_urban rail rail_electric ship" speed="13.89" length="6.77" shape="1128.71,313.90 1129.42,315.74 1130.19,316.89 1131.25,317.82 1132.86,319.02"/>
    </edge>
    <edge id=":104210089_4" function="internal">
        <lane id=":104210089_4_0" index="0" disallow="tram rail_urban rail rail_electric ship" speed="13.89" length="4.09" shape="1128.71,313.90 1129.06,315.90 1128.81,317.95"/>
    </edge>
    <edge id=":104210089_5" function="internal">
        <lane id=":104210089_5_0" index="0" disallow="tram rail_urban rail rail_electric ship" speed="13.89" length="2.41" shape="1128.71,313.90 1128.31,315.33 1127.66,315.98"/>
    </edge>
    <edge id=":104210089_10" function="internal">
        <lane id=":104210089_10_0" index="0" speed="13.89" length="4.83" shape="1128.81,317.95 1127.96,320.04 1126.51,322.17"/>
    </edge>
    <edge id=":104210089_11" function="internal">
        <lane id=":104210089_11_0" index="0" speed="13.89" length="2.41" shape="1127.66,315.98 1126.74,315.84 1125.58,314.92"/>
    </edge>
    <edge id=":104210089_6" function="internal">
        <lane id=":104210089_6_0" index="0" disallow="tram rail_urban rail rail_electric ship" speed="13.89" length="5.64" shape="1123.95,320.09 1124.93,318.68 1125.54,317.34 1125.75,316.09 1125.58,314.92"/>
    </edge>
    <edge id=":104210089_7" function="internal">
        <lane id=":104210089_7_0" index="0" disallow="tram rail_urban rail rail_electric ship" speed="13.89" length="10.17" shape="1123.95,320.09 1125.98,318.21 1128.14,317.40 1130.43,317.67 1132.86,319.02"/>
    </edge>
    <edge id=":104210089_8" function="internal">
        <lane id=":104210089_8_0" index="0" disallow="tram rail_urban rail rail_electric ship" speed="13.89" length="4.82" shape="1123.95,320.09 1125.37,319.65 1126.27,319.85 1126.65,320.69 1126.51,322.17"/>
    </edge>
    <edge id=":104217867_0" function="internal">
        <lane id=":104217867_0_0" index="0" allow="delivery bicycle pedestrian" speed="9.73" length="0.17" shape="786.79,750.01 786.70,750.15"/>
    </edge>
    <edge id=":104217867_1" function="internal">
        <lane id=":104217867_1_0" index="0" disallow="tram rail_urban rail rail_electric ship" speed="13.89" length="2.41" shape="786.79,750.01 785.40,750.52 784.49,750.37"/>
    </edge>
    <edge id=":104217867_4" function="internal">
        <lane id=":104217867_4_0" index="0" speed="13.89" length="2.41" shape="784.49,750.37 784.06,749.55 784.12,748.07"/>
    </edge>
    <edge id=":104217867_2" function="internal">
        <lane id=":104217867_2_0" index="0" disallow="tram rail_urban rail rail_electric ship" speed="9.73" length="0.52" shape="783.84,748.50 784.12,748.07"/>
    </edge>
    <edge id=":104217867_3" function="internal">
        <lane id=":104217867_3_0" index="0" allow="delivery bicycle pedestrian" speed="5.56" length="2.41" shape="783.84,748.50 785.17,747.84 786.10,747.90"/>
    </edge>
    <edge id=":104217867_5" function="internal">
        <lane id=":104217867_5_0" index="0" speed="5.56" length="2.41" shape="786.10,747.90 786.60,748.67 786.70,750.15"/>
    </edge>
    <edge id=":104238807_0" function="internal">
        <lane id=":104238807_0_0" index="0" disallow="tram rail_urban rail rail_electric ship" speed="13.89" length="9.43" shape="1407.60,529.75 1401.66,537.04"/>
        <lane id=":104238807_0_1" index="1" disallow="tram rail_urban rail rail_electric ship" speed="13.89" length="9.43" shape="1405.05,527.65 1399.09,534.98"/>
    </edge>
    <edge id=":104238807_2" function="internal">
        <lane id=":104238807_2_0" index="0" disallow="tram rail_urban rail rail_electric ship" speed="13.89" length="5.13" shape="1405.05,527.65 1402.98,529.54 1400.79,530.32"/>
    </edge>
    <edge id=":104238807_3" function="internal">
        <lane id=":104238807_3_0" index="0" disallow="tram rail_urban rail rail_electric ship" speed="13.89" length="2.41" shape="1405.05,527.65 1403.63,528.08 1402.73,527.88"/>
    </edge>
    <edge id=":104238807_10" function="internal">
        <lane id=":104238807_10_0" index="0" speed="13.89" length="5.16" shape="1400.79,530.32 1398.47,529.99 1396.04,528.55"/>
    </edge>
    <edge id=":104238807_11" function="internal">
        <lane id=":104238807_11_0" index="0" speed="13.89" length="2.41" shape="1402.73,527.88 1402.35,527.03 1402.50,525.55"/>
    </edge>
    <edge id=":104238807_4" function="internal">
        <lane id=":104238807_4_0" index="0" disallow="tram rail_urban rail rail_electric ship" speed="13.89" length="5.03" shape="1398.10,525.97 1399.29,526.68 1400.42,526.84 1401.49,526.47 1402.50,525.55"/>
    </edge>
    <edge id=":104238807_5" function="internal">
        <lane id=":104238807_5_0" index="0" disallow="tram rail_urban rail rail_electric ship" speed="13.89" length="10.34" shape="1398.10,525.97 1400.04,528.04 1400.85,530.23 1400.54,532.54 1399.09,534.98"/>
    </edge>
    <edge id=":104238807_6" function="internal">
        <lane id=":104238807_6_0" index="0" disallow="tram rail_urban rail rail_electric ship" speed="13.89" length="4.82" shape="1398.10,525.97 1398.55,527.39 1398.36,528.29 1397.52,528.68 1396.04,528.55"/>
    </edge>
    <edge id=":104238807_7" function="internal">
        <lane id=":104238807_7_0" index="0" disallow="tram rail_urban rail rail_electric ship" speed="13.89" length="5.00" shape="1396.52,532.91 1397.22,531.73 1397.37,530.61 1396.98,529.55 1396.04,528.55"/>
    </edge>
    <edge id=":104238807_8" function="internal">
        <lane id=":104238807_8_0" index="0" disallow="tram rail_urban rail rail_electric ship" speed="13.89" length="9.48" shape="1396.52,532.91 1402.50,525.55"/>
    </edge>
    <edge id=":104238807_9" function="internal">
        <lane id=":104238807_9_0" index="0" disallow="tram rail_urban rail rail_electric ship" speed="13.89" length="2.41" shape="1396.52,532.91 1397.94,532.46 1398.84,532.66"/>
    </edge>
    <edge id=":104238807_12" function="internal">
        <lane id=":104238807_12_0" index="0" speed="13.89" length="2.41" shape="1398.84,532.66 1399.22,533.50 1399.09,534.98"/>
    </edge>
    <edge id=":104238809_0" function="internal">
        <lane id=":104238809_0_0" index="0" disallow="tram rail_urban rail rail_electric ship" speed="13.89" length="3.55" shape="1267.33,425.74 1264.55,423.53"/>
    </edge>
    <edge id=":104238809_1" function="internal">
        <lane id=":104238809_1_0" index="0" disallow="tram rail_urban rail rail_electric ship" speed="13.89" length="5.83" shape="1267.33,425.74 1266.01,424.63 1265.21,423.74 1264.65,422.69 1264.03,421.08"/>
    </edge>
    <edge id=":104238809_2" function="internal">
        <lane id=":104238809_2_0" index="0" disallow="tram rail_urban rail rail_electric ship" speed="13.89" length="2.41" shape="1267.33,425.74 1266.87,424.32 1267.07,423.42"/>
    </edge>
    <edge id=":104238809_9" function="internal">
        <lane id=":104238809_9_0" index="0" speed="13.89" length="2.41" shape="1267.07,423.42 1267.90,423.03 1269.39,423.16"/>
    </edge>
    <edge id=":104238809_3" function="internal">
        <lane id=":104238809_3_0" index="0" disallow="tram rail_urban rail rail_electric ship" speed="13.89" length="3.96" shape="1266.29,420.70 1269.39,423.16"/>
    </edge>
    <edge id=":104238809_4" function="internal">
        <lane id=":104238809_4_0" index="0" disallow="tram rail_urban rail rail_electric ship" speed="13.89" length="2.29" shape="1266.29,420.70 1264.03,421.08"/>
    </edge>
    <edge id=":104238809_5" function="internal">
        <lane id=":104238809_5_0" index="0" disallow="tram rail_urban rail rail_electric ship" speed="13.89" length="2.54" shape="1266.29,420.70 1266.91,422.06 1266.83,422.98 1266.73,423.05"/>
    </edge>
    <edge id=":104238809_10" function="internal">
        <lane id=":104238809_10_0" index="0" speed="13.89" length="2.31" shape="1266.73,423.05 1266.04,423.47 1264.55,423.53"/>
    </edge>
    <edge id=":104238809_6" function="internal">
        <lane id=":104238809_6_0" index="0" disallow="tram rail_urban rail rail_electric ship" speed="13.89" length="4.38" shape="1267.00,419.60 1267.45,420.81 1267.84,421.63 1268.41,422.32 1269.39,423.16"/>
    </edge>
    <edge id=":104238809_7" function="internal">
        <lane id=":104238809_7_0" index="0" disallow="tram rail_urban rail rail_electric ship" speed="13.89" length="9.00" shape="1267.00,419.60 1267.98,422.93 1267.90,424.70 1266.75,424.89 1264.55,423.53"/>
    </edge>
    <edge id=":104238809_8" function="internal">
        <lane id=":104238809_8_0" index="0" disallow="tram rail_urban rail rail_electric ship" speed="13.89" length="4.85" shape="1267.00,419.60 1266.82,421.08 1266.26,421.82 1265.33,421.82 1264.03,421.08"/>
    </edge>
    <edge id=":104238811_0" function="internal">
        <lane id=":104238811_0_0" index="0" disallow="tram rail_urban rail rail_electric ship" speed="13.89" length="4.73" shape="1264.39,423.40 1263.32,422.81 1262.28,422.74 1261.28,423.20 1260.32,424.18"/>
    </edge>
    <edge id=":104238811_1" function="internal">
        <lane id=":104238811_1_0" index="0" disallow="tram rail_urban rail rail_electric ship" speed="13.89" length="9.14" shape="1264.39,423.40 1257.18,417.78"/>
    </edge>
    <edge id=":104238811_2" function="internal">
        <lane id=":104238811_2_0" index="0" disallow="tram rail_urban rail rail_electric ship" speed="13.89" length="2.67" shape="1264.39,423.40 1263.76,422.04 1263.85,421.12 1264.06,420.99"/>
    </edge>
    <edge id=":104238811_9" function="internal">
        <lane id=":104238811_9_0" index="0" speed="13.89" length="2.18" shape="1264.06,420.99 1264.63,420.63 1266.13,420.58"/>
    </edge>
    <edge id=":104238811_3" function="internal">
        <lane id=":104238811_3_0" index="0" disallow="tram rail_urban rail rail_electric ship" speed="13.89" length="8.77" shape="1259.21,415.18 1266.13,420.58"/>
    </edge>
    <edge id=":104238811_4" function="internal">
        <lane id=":104238811_4_0" index="0" disallow="tram rail_urban rail rail_electric ship" speed="13.89" length="5.28" shape="1259.21,415.18 1261.17,417.19 1262.01,419.35 1261.99,419.51"/>
    </edge>
    <edge id=":104238811_5" function="internal">
        <lane id=":104238811_5_0" index="0" disallow="tram rail_urban rail rail_electric ship" speed="13.89" length="2.41" shape="1259.21,415.18 1259.68,416.60 1259.49,417.50"/>
    </edge>
    <edge id=":104238811_10" function="internal">
        <lane id=":104238811_10_0" index="0" speed="13.89" length="5.06" shape="1261.99,419.51 1261.72,421.68 1260.32,424.18"/>
    </edge>
    <edge id=":104238811_11" function="internal">
        <lane id=":104238811_11_0" index="0" speed="13.89" length="2.41" shape="1259.49,417.50 1258.66,417.90 1257.18,417.78"/>
    </edge>
    <edge id=":104238811_6" function="internal">
        <lane id=":104238811_6_0" index="0" disallow="tram rail_urban rail rail_electric ship" speed="13.89" length="5.05" shape="1257.70,422.18 1258.39,420.95 1258.53,419.81 1258.13,418.76 1257.18,417.78"/>
    </edge>
    <edge id=":104238811_7" function="internal">
        <lane id=":104238811_7_0" index="0" disallow="tram rail_urban rail rail_electric ship" speed="13.89" length="9.81" shape="1257.70,422.18 1259.70,420.15 1261.77,419.20 1263.91,419.35 1266.13,420.58"/>
    </edge>
    <edge id=":104238811_8" function="internal">
        <lane id=":104238811_8_0" index="0" disallow="tram rail_urban rail rail_electric ship" speed="13.89" length="4.82" shape="1257.70,422.18 1259.10,421.69 1260.01,421.87 1260.41,422.69 1260.32,424.18"/>
    </edge>
    <edge id=":104239845_0" function="internal">
        <lane id=":104239845_0_0" index="0" disallow="tram rail_urban rail rail_electric ship" speed="9.73" length="5.01" shape="1116.20,612.51 1115.01,611.82 1113.89,611.68 1112.83,612.09 1111.85,613.04"/>
    </edge>
    <edge id=":104239845_1" function="internal">
        <lane id=":104239845_1_0" index="0" disallow="tram rail_urban rail rail_electric ship" speed="9.73" length="9.51" shape="1116.20,612.51 1108.71,606.65"/>
    </edge>
    <edge id=":104239845_2" function="internal">
        <lane id=":104239845_2_0" index="0" disallow="tram rail_urban rail rail_electric ship" speed="9.73" length="10.35" shape="1116.20,612.51 1114.24,610.46 1113.41,608.27 1113.72,605.95 1115.15,603.51"/>
    </edge>
    <edge id=":104239845_3" function="internal">
        <lane id=":104239845_3_0" index="0" allow="delivery bicycle pedestrian" speed="5.56" length="4.82" shape="1116.20,612.51 1115.74,611.10 1115.93,610.20 1116.76,609.80 1118.24,609.92"/>
    </edge>
    <edge id=":104239845_4" function="internal">
        <lane id=":104239845_4_0" index="0" allow="delivery bicycle pedestrian" speed="9.73" length="5.01" shape="1117.73,605.56 1117.04,606.75 1116.89,607.87 1117.30,608.93 1118.24,609.92"/>
    </edge>
    <edge id=":104239845_5" function="internal">
        <lane id=":104239845_5_0" index="0" disallow="tram rail_urban rail rail_electric ship" speed="13.89" length="9.52" shape="1117.73,605.56 1111.85,613.04"/>
    </edge>
    <edge id=":104239845_6" function="internal">
        <lane id=":104239845_6_0" index="0" disallow="tram rail_urban rail rail_electric ship" speed="13.89" length="5.17" shape="1117.73,605.56 1115.68,607.51 1113.49,608.33"/>
    </edge>
    <edge id=":104239845_7" function="internal">
        <lane id=":104239845_7_0" index="0" disallow="tram rail_urban rail rail_electric ship" speed="13.89" length="2.41" shape="1117.73,605.56 1116.32,606.02 1115.42,605.83"/>
    </edge>
    <edge id=":104239845_16" function="internal">
        <lane id=":104239845_16_0" index="0" speed="13.89" length="5.17" shape="1113.49,608.33 1111.16,608.05 1108.71,606.65"/>
    </edge>
    <edge id=":104239845_17" function="internal">
        <lane id=":104239845_17_0" index="0" speed="13.89" length="2.41" shape="1115.42,605.83 1115.03,604.99 1115.15,603.51"/>
    </edge>
    <edge id=":104239845_8" function="internal">
        <lane id=":104239845_8_0" index="0" disallow="tram rail_urban rail rail_electric ship" speed="13.89" length="5.06" shape="1110.73,604.04 1111.93,604.73 1113.07,604.87 1114.14,604.46 1115.15,603.51"/>
    </edge>
    <edge id=":104239845_9" function="internal">
        <lane id=":104239845_9_0" index="0" allow="delivery bicycle pedestrian" speed="9.73" length="9.54" shape="1110.73,604.04 1118.24,609.92"/>
    </edge>
    <edge id=":104239845_10" function="internal">
        <lane id=":104239845_10_0" index="0" disallow="tram rail_urban rail rail_electric ship" speed="13.89" length="10.34" shape="1110.73,604.04 1112.70,606.08 1113.54,608.26 1113.26,610.58 1111.85,613.04"/>
    </edge>
    <edge id=":104239845_11" function="internal">
        <lane id=":104239845_11_0" index="0" disallow="tram rail_urban rail rail_electric ship" speed="13.89" length="4.82" shape="1110.73,604.04 1111.20,605.45 1111.02,606.36 1110.19,606.76 1108.71,606.65"/>
    </edge>
    <edge id=":104239845_12" function="internal">
        <lane id=":104239845_12_0" index="0" disallow="tram rail_urban rail rail_electric ship" speed="13.89" length="5.01" shape="1109.24,611.01 1109.93,609.82 1110.07,608.69 1109.66,607.63 1108.71,606.65"/>
    </edge>
    <edge id=":104239845_13" function="internal">
        <lane id=":104239845_13_0" index="0" disallow="tram rail_urban rail rail_electric ship" speed="13.89" length="9.55" shape="1109.24,611.01 1115.15,603.51"/>
    </edge>
    <edge id=":104239845_14" function="internal">
        <lane id=":104239845_14_0" index="0" allow="delivery bicycle pedestrian" speed="9.73" length="5.31" shape="1109.24,611.01 1111.29,609.04 1113.47,608.20 1113.61,608.22"/>
    </edge>
    <edge id=":104239845_15" function="internal">
        <lane id=":104239845_15_0" index="0" disallow="tram rail_urban rail rail_electric ship" speed="13.89" length="2.41" shape="1109.24,611.01 1110.65,610.54 1111.56,610.72"/>
    </edge>
    <edge id=":104239845_18" function="internal">
        <lane id=":104239845_18_0" index="0" speed="9.73" length="5.04" shape="1113.61,608.22 1115.79,608.50 1118.24,609.92"/>
    </edge>
    <edge id=":104239845_19" function="internal">
        <lane id=":104239845_19_0" index="0" speed="13.89" length="2.41" shape="1111.56,610.72 1111.96,611.56 1111.85,613.04"/>
    </edge>
    <edge id=":104239848_0" function="internal">
        <lane id=":104239848_0_0" index="0" disallow="tram rail_urban rail rail_electric ship" speed="13.89" length="5.00" shape="983.39,506.82 982.21,506.12 981.09,505.97 980.03,506.37 979.03,507.31"/>
    </edge>
    <edge id=":104239848_1" function="internal">
        <lane id=":104239848_1_0" index="0" disallow="tram rail_urban rail rail_electric ship" speed="13.89" length="9.57" shape="983.39,506.82 975.94,500.79"/>
    </edge>
    <edge id=":104239848_2" function="internal">
        <lane id=":104239848_2_0" index="0" disallow="tram rail_urban rail rail_electric ship" speed="13.89" length="10.36" shape="983.39,506.82 981.45,504.75 980.64,502.56 980.95,500.24 982.40,497.79"/>
    </edge>
    <edge id=":104239848_3" function="internal">
        <lane id=":104239848_3_0" index="0" disallow="tram rail_urban rail rail_electric ship" speed="13.89" length="4.82" shape="983.39,506.82 982.93,505.40 983.13,504.50 983.96,504.11 985.44,504.24"/>
    </edge>
    <edge id=":104239848_4" function="internal">
        <lane id=":104239848_4_0" index="0" disallow="tram rail_urban rail rail_electric ship" speed="13.89" length="5.04" shape="984.98,499.84 984.27,501.04 984.11,502.17 984.51,503.24 985.44,504.24"/>
    </edge>
    <edge id=":104239848_5" function="internal">
        <lane id=":104239848_5_0" index="0" disallow="tram rail_urban rail rail_electric ship" speed="13.89" length="9.55" shape="984.98,499.84 979.03,507.31"/>
    </edge>
    <edge id=":104239848_6" function="internal">
        <lane id=":104239848_6_0" index="0" disallow="tram rail_urban rail rail_electric ship" speed="13.89" length="5.20" shape="984.98,499.84 982.90,501.80 980.70,502.61"/>
    </edge>
    <edge id=":104239848_7" function="internal">
        <lane id=":104239848_7_0" index="0" disallow="tram rail_urban rail rail_electric ship" speed="13.89" length="2.41" shape="984.98,499.84 983.56,500.30 982.66,500.10"/>
    </edge>
    <edge id=":104239848_16" function="internal">
        <lane id=":104239848_16_0" index="0" speed="13.89" length="5.20" shape="980.70,502.61 978.38,502.27 975.94,500.79"/>
    </edge>
    <edge id=":104239848_17" function="internal">
        <lane id=":104239848_17_0" index="0" speed="13.89" length="2.41" shape="982.66,500.10 982.27,499.27 982.40,497.79"/>
    </edge>
    <edge id=":104239848_8" function="internal">