<?xml version="1.0" encoding="UTF-8"?>

<!-- generated on Thu Mar  2 02:48:31 2017 by SUMO polyconvert Version 0.28.0
<?xml version="1.0" encoding="UTF-8"?>

<configuration xmlns:xsi="http://www.w3.org/2001/XMLSchema-instance" xsi:noNamespaceSchemaLocation="http://sumo.dlr.de/xsd/polyconvertConfiguration.xsd">

    <input>
        <net-file value="map.net.xml"/>
        <osm-files value="map.osm"/>
    </input>

    <output>
        <output-file value="map.poly.xml"/>
    </output>

    <processing>
        <poi-layer-offset value="5"/>
    </processing>

</configuration>
-->

<additional xmlns:xsi="http://www.w3.org/2001/XMLSchema-instance" xsi:noNamespaceSchemaLocation="http://sumo.dlr.de/xsd/additional_file.xsd">
    <location netOffset="-545167.50,-4483063.92" convBoundary="0.00,0.00,1871.80,1142.63" origBoundary="-74.466911,40.496993,-74.444873,40.507321" projParameter="+proj=utm +zone=18 +ellps=WGS84 +datum=WGS84 +units=m +no_defs"/>

    <poly id="158648318" type="amenity" color="237,199,199" fill="1" layer="-1.00" shape="1299.54,196.32 1295.27,188.37 1287.97,192.40 1294.76,205.75 1302.51,201.95 1299.54,196.32"/>
    <poly id="182587710" type="building" color="255,230,230" fill="1" layer="-1.00" shape="1270.80,562.49 1278.68,552.44 1283.53,556.22 1275.65,566.27 1270.80,562.49"/>
    <poly id="182590138" type="amenity" color="237,199,199" fill="1" layer="-1.00" shape="1623.48,697.32 1688.16,653.22 1713.23,628.15 1729.18,599.16 1840.76,313.23 1868.55,189.77 1871.80,158.44 1624.46,59.01 1202.62,271.29 1272.72,418.50 1262.09,432.31 1064.89,670.63 918.52,852.90 1059.02,963.56 1040.89,985.69 1030.80,998.80 1022.47,1009.60 1028.31,1017.03 1032.83,1024.39 1053.03,1029.26 1222.82,1029.60 1247.80,1024.33 1285.38,1013.73 1286.68,1025.05 1328.39,999.92 1375.66,969.96 1419.90,940.08 1492.50,887.63 1683.42,742.75 1635.60,735.98 1628.51,729.28 1623.33,720.86 1620.99,709.18 1623.48,697.32"/>
    <poly id="182887208" type="parking" color="184,184,179" fill="1" layer="-1.00" shape="1176.77,543.70 1213.44,496.17 1255.90,528.67 1236.72,553.54 1249.06,562.99 1231.57,585.66 1176.77,543.70"/>
    <poly id="182887284" type="parking" color="184,184,179" fill="1" layer="-1.00" shape="1122.03,704.82 1079.57,669.65 1165.72,558.80 1194.89,582.29 1179.77,600.77 1192.90,612.25 1177.49,631.27 1174.69,647.91 1163.88,661.21 1159.03,657.30 1152.43,665.61 1122.03,704.82"/>
    <poly id="251381397" type="building" color="255,230,230" fill="1" layer="-1.00" shape="1311.12,599.60 1304.34,594.20 1302.74,596.23 1301.85,595.52 1301.52,595.94 1301.38,595.83 1298.20,599.87 1299.20,600.68 1298.94,601.01 1307.83,608.06 1308.15,607.66 1310.42,609.46 1313.02,606.19 1310.75,604.39 1313.22,601.26 1311.43,599.84 1311.12,599.60"/>
    <poly id="251381434" type="building" color="255,230,230" fill="1" layer="-1.00" shape="1201.93,644.06 1198.70,648.26 1195.18,645.47 1169.38,677.86 1172.96,680.72 1170.02,684.42 1177.06,690.02 1173.06,695.06 1170.79,693.26 1153.90,714.45 1189.94,743.17 1207.00,721.77 1201.38,717.31 1205.70,711.89 1212.62,717.42 1244.76,677.23 1201.93,644.06"/>
    <poly id="251381434#1" type="leisure" color="207,245,201" fill="1" layer="-2.00" shape="1201.93,644.06 1198.70,648.26 1195.18,645.47 1169.38,677.86 1172.96,680.72 1170.02,684.42 1177.06,690.02 1173.06,695.06 1170.79,693.26 1153.90,714.45 1189.94,743.17 1207.00,721.77 1201.38,717.31 1205.70,711.89 1212.62,717.42 1244.76,677.23 1201.93,644.06"/>
    <poly id="251381434#2" type="sport" color="79,230,125" fill="1" layer="-2.00" shape="1201.93,644.06 1198.70,648.26 1195.18,645.47 1169.38,677.86 1172.96,680.72 1170.02,684.42 1177.06,690.02 1173.06,695.06 1170.79,693.26 1153.90,714.45 1189.94,743.17 1207.00,721.77 1201.38,717.31 1205.70,711.89 1212.62,717.42 1244.76,677.23 1201.93,644.06"/>
    <poly id="251381535" type="building" color="255,230,230" fill="1" layer="-1.00" shape="1325.68,589.60 1324.88,588.97 1323.90,588.20 1324.74,587.13 1321.48,584.58 1322.14,583.74 1318.89,581.20 1318.24,582.02 1314.23,578.88 1309.96,584.33 1309.27,583.79 1306.05,587.90 1307.58,589.10 1307.95,588.62 1317.62,596.21 1318.44,595.16 1320.78,597.00 1326.24,590.03 1325.68,589.60"/>
    <poly id="251381565" type="building" color="255,230,230" fill="1" layer="-1.00" shape="1276.14,549.09 1275.55,548.64 1272.55,546.29 1267.20,553.09 1268.83,554.37 1266.32,557.50 1269.70,560.19 1272.21,557.03 1273.74,555.16 1277.61,550.26 1276.14,549.09"/>
    <poly id="251381711" type="building" color="255,230,230" fill="1" layer="-1.00" shape="1261.02,546.94 1261.97,545.76 1265.73,541.14 1265.32,540.80 1266.58,539.26 1263.93,537.10 1261.32,534.98 1260.07,536.53 1259.83,536.33 1254.03,543.44 1254.40,543.73 1251.40,547.42 1255.64,550.86 1254.19,552.71 1255.29,553.57 1256.73,551.75 1259.72,548.07 1259.94,548.25 1261.02,546.94"/>
    <poly id="251381719" type="building" color="255,230,230" fill="1" layer="-1.00" shape="1254.86,568.31 1250.90,573.19 1255.87,577.22 1259.83,572.34 1254.86,568.31"/>
    <poly id="251381926" type="building" color="255,230,230" fill="1" layer="-1.00" shape="1254.49,592.22 1254.85,591.74 1256.69,589.36 1254.00,587.29 1254.90,586.10 1252.25,584.06 1251.33,585.24 1251.21,585.14 1244.74,593.53 1243.43,595.29 1248.77,599.40 1250.10,597.66 1250.22,597.76 1254.49,592.22"/>
    <poly id="251382197" type="building" color="255,230,230" fill="1" layer="-1.00" shape="1299.23,565.94 1296.65,569.32 1288.97,578.69 1293.93,582.48 1295.46,580.47 1297.86,582.32 1299.37,582.25 1300.22,581.14 1300.86,581.63 1304.44,576.99 1302.98,575.87 1306.39,571.44 1299.23,565.94"/>
    <poly id="251382200" type="building" color="255,230,230" fill="1" layer="-1.00" shape="1269.37,541.36 1268.61,540.76 1268.14,540.40 1267.00,541.87 1266.66,541.61 1261.30,548.48 1261.73,548.83 1259.26,552.00 1260.19,552.72 1263.74,555.50 1266.22,552.33 1266.35,552.43 1271.71,545.55 1271.44,545.34 1272.59,543.87 1269.37,541.36"/>
    <poly id="251382226" type="building" color="255,230,230" fill="1" layer="-1.00" shape="1342.03,371.13 1339.80,366.66 1337.50,367.80 1337.32,367.46 1327.56,372.35 1327.80,372.84 1325.61,373.88 1326.46,375.67 1323.35,377.15 1324.38,379.35 1327.60,377.81 1328.74,380.07 1340.30,374.13 1340.24,374.02 1342.82,372.71 1342.12,371.31 1342.03,371.13"/>
    <poly id="251382259" type="building" color="255,230,230" fill="1" layer="-1.00" shape="1197.25,606.04 1197.16,606.15 1192.87,611.33 1196.47,614.30 1191.57,620.21 1193.38,621.71 1191.66,623.79 1203.84,633.89 1205.99,631.29 1208.11,633.05 1212.84,636.93 1213.00,636.73 1215.82,639.07 1220.71,643.13 1219.39,644.72 1222.15,647.00 1222.42,646.68 1221.74,647.65 1227.59,652.44 1228.28,651.60 1236.20,658.07 1241.10,657.29 1241.36,659.65 1253.18,658.17 1251.82,646.54 1250.37,646.63 1251.64,644.99 1251.74,645.07 1264.78,655.23 1270.51,659.70 1270.89,659.22 1272.01,657.78 1272.39,657.30 1279.55,648.20 1281.05,646.28 1281.43,645.80 1288.58,636.70 1288.96,636.21 1290.11,634.78 1290.41,634.40 1292.77,634.04 1295.89,636.51 1298.24,633.54 1299.73,633.30 1300.70,634.07 1308.83,623.77 1307.73,622.91 1306.57,613.75 1306.75,613.52 1308.45,611.38 1295.59,601.15 1289.84,596.60 1280.72,608.12 1279.35,607.04 1277.47,609.47 1278.89,610.57 1261.22,633.03 1259.11,635.71 1254.36,631.99 1254.67,631.60 1245.58,624.50 1245.23,624.95 1240.26,621.07 1241.88,618.99 1211.45,595.30 1206.52,601.26 1203.37,598.65 1197.25,606.04"/>
    <poly id="251382269" type="building" color="255,230,230" fill="1" layer="-1.00" shape="1300.01,312.01 1299.79,312.13 1299.24,312.42 1298.78,313.50 1296.10,314.96 1296.10,315.62 1295.99,315.67 1299.83,323.16 1307.39,319.27 1307.00,318.50 1309.76,317.07 1312.87,315.45 1311.12,311.98 1309.64,312.74 1309.71,312.54 1308.74,310.64 1306.82,310.12 1303.19,311.98 1301.39,311.26 1300.01,312.01"/>
    <poly id="288859992" type="parking" color="184,184,179" fill="1" layer="-1.00" shape="1296.23,600.08 1303.48,590.71 1287.21,578.96 1298.39,564.70 1285.40,555.35 1249.13,601.88 1262.56,611.66 1280.85,588.33 1296.23,600.08"/>
    <poly id="288859994" type="parking" color="184,184,179" fill="1" layer="-1.00" shape="1320.54,428.64 1334.11,421.93 1330.29,413.87 1332.92,412.19 1327.08,401.17 1311.35,409.45 1320.54,428.64"/>
    <poly id="375623297" type="amenity" color="237,199,199" fill="1" layer="-1.00" shape="822.06,442.13 796.96,392.46 728.48,426.79 742.45,454.41 739.46,455.91 746.17,469.18 749.08,467.72 753.52,476.50 822.06,442.13"/>
    <poly id="375623297#1" type="building" color="255,230,230" fill="1" layer="-1.00" shape="822.06,442.13 796.96,392.46 728.48,426.79 742.45,454.41 739.46,455.91 746.17,469.18 749.08,467.72 753.52,476.50 822.06,442.13"/>
    <poly id="375623298" type="amenity" color="237,199,199" fill="1" layer="-1.00" shape="575.41,400.52 571.45,413.23 567.71,424.49 565.12,424.67 563.77,429.61 553.49,430.86 552.48,433.89 560.25,441.07 558.57,445.21 563.05,449.85 563.26,448.80 565.57,449.35 564.01,454.48 558.72,452.80 558.45,453.72 550.26,451.10 542.28,456.39 539.38,464.68 542.22,465.49 541.96,466.22 545.98,467.63 546.19,466.90 551.54,468.46 551.28,469.38 591.03,482.38 591.69,480.33 594.88,481.29 595.99,483.81 593.80,490.20 591.78,496.75 590.76,496.47 589.51,500.75 592.29,501.40 588.72,512.59 581.54,516.30 593.52,540.06 591.92,541.03 594.03,545.11 596.10,549.44 601.35,547.03 600.96,546.24 637.83,527.66 638.16,528.53 658.81,518.29 658.29,517.56 689.71,501.53 688.10,498.95 689.80,498.03 686.00,491.01 684.49,491.85 680.61,484.08 682.40,483.24 678.51,475.67 676.91,476.31 674.04,470.23 668.06,468.88 668.74,464.88 678.89,459.90 695.33,465.70 695.80,464.85 740.31,479.82 710.87,421.19 695.32,429.01 692.45,427.98 694.11,422.96 690.19,421.67 685.47,435.99 680.20,434.27 683.24,425.04 681.88,424.59 684.30,417.23 674.67,414.08 674.28,415.25 664.61,412.09 662.30,419.11 660.90,418.66 662.73,413.09 651.43,409.39 651.17,410.18 645.55,408.33 637.63,432.36 634.85,431.46 624.17,436.89 621.29,431.17 613.91,434.86 610.96,428.98 610.16,429.39 609.08,427.23 610.70,426.41 592.62,390.47 595.56,389.01 601.51,400.84 599.97,401.60 602.92,407.45 605.60,406.11 606.11,407.13 618.66,400.85 621.57,406.63 644.59,395.14 647.05,400.01 650.26,398.41 651.58,401.03 654.41,399.62 655.31,401.40 663.22,397.44 657.64,386.36 643.89,393.23 632.58,370.76 608.98,382.53 608.38,381.35 607.28,381.90 602.57,372.53 595.38,376.11 590.49,366.38 572.69,375.27 574.68,379.24 571.54,380.81 547.98,333.98 483.45,366.20 506.65,412.32 565.05,383.16 565.93,384.92 567.23,384.28 575.41,400.52"/>
    <poly id="375623298#1" type="building" color="255,230,230" fill="1" layer="-1.00" shape="575.41,400.52 571.45,413.23 567.71,424.49 565.12,424.67 563.77,429.61 553.49,430.86 552.48,433.89 560.25,441.07 558.57,445.21 563.05,449.85 563.26,448.80 565.57,449.35 564.01,454.48 558.72,452.80 558.45,453.72 550.26,451.10 542.28,456.39 539.38,464.68 542.22,465.49 541.96,466.22 545.98,467.63 546.19,466.90 551.54,468.46 551.28,469.38 591.03,482.38 591.69,480.33 594.88,481.29 595.99,483.81 593.80,490.20 591.78,496.75 590.76,496.47 589.51,500.75 592.29,501.40 588.72,512.59 581.54,516.30 593.52,540.06 591.92,541.03 594.03,545.11 596.10,549.44 601.35,547.03 600.96,546.24 637.83,527.66 638.16,528.53 658.81,518.29 658.29,517.56 689.71,501.53 688.10,498.95 689.80,498.03 686.00,491.01 684.49,491.85 680.61,484.08 682.40,483.24 678.51,475.67 676.91,476.31 674.04,470.23 668.06,468.88 668.74,464.88 678.89,459.90 695.33,465.70 695.80,464.85 740.31,479.82 710.87,421.19 695.32,429.01 692.45,427.98 694.11,422.96 690.19,421.67 685.47,435.99 680.20,434.27 683.24,425.04 681.88,424.59 684.30,417.23 674.67,414.08 674.28,415.25 664.61,412.09 662.30,419.11 660.90,418.66 662.73,413.09 651.43,409.39 651.17,410.18 645.55,408.33 637.63,432.36 634.85,431.46 624.17,436.89 621.29,431.17 613.91,434.86 610.96,428.98 610.16,429.39 609.08,427.23 610.70,426.41 592.62,390.47 595.56,389.01 601.51,400.84 599.97,401.60 602.92,407.45 605.60,406.11 606.11,407.13 618.66,400.85 621.57,406.63 644.59,395.14 647.05,400.01 650.26,398.41 651.58,401.03 654.41,399.62 655.31,401.40 663.22,397.44 657.64,386.36 643.89,393.23 632.58,370.76 608.98,382.53 608.38,381.35 607.28,381.90 602.57,372.53 595.38,376.11 590.49,366.38 572.69,375.27 574.68,379.24 571.54,380.81 547.98,333.98 483.45,366.20 506.65,412.32 565.05,383.16 565.93,384.92 567.23,384.28 575.41,400.52"/>
    <poly id="39681587" type="amenity" color="237,199,199" fill="1" layer="-1.00" shape="949.90,1054.54 962.81,1049.24 985.74,1039.81 994.75,1042.92 995.38,1042.50 1030.80,998.80 1040.89,985.69 1056.75,965.91 1058.54,963.67 866.34,813.40 798.81,730.67 834.13,687.02 663.48,551.32 95.79,836.97 247.79,1022.90 291.16,1006.67 302.16,1019.78 344.50,1008.97 436.36,1127.29 438.40,1142.63 875.78,1070.48 949.90,1054.54"/>
    <poly id="39681587#1" type="building" color="255,230,230" fill="1" layer="-1.00" shape="949.90,1054.54 962.81,1049.24 985.74,1039.81 994.75,1042.92 995.38,1042.50 1030.80,998.80 1040.89,985.69 1056.75,965.91 1058.54,963.67 866.34,813.40 798.81,730.67 834.13,687.02 663.48,551.32 95.79,836.97 247.79,1022.90 291.16,1006.67 302.16,1019.78 344.50,1008.97 436.36,1127.29 438.40,1142.63 875.78,1070.48 949.90,1054.54"/>
    <poly id="419931223" type="landuse" color="194,194,130" fill="1" layer="-3.00" shape="974.27,191.27 965.05,173.78 986.20,172.78 979.74,188.81 974.27,191.27"/>
    <poly id="419931224" type="landuse" color="194,194,130" fill="1" layer="-3.00" shape="997.75,179.87 1014.62,171.82 1000.98,171.50 997.75,179.87"/>
    <poly id="419931225" type="landuse" color="194,194,130" fill="1" layer="-3.00" shape="1160.67,185.86 1150.80,166.55 1201.27,164.60 1160.67,185.86"/>
    <poly id="441709169" type="building" color="255,230,230" fill="1" layer="-1.00" shape="1306.74,516.30 1265.43,483.85 1252.89,499.69 1294.21,532.14 1306.74,516.30"/>
    <poly id="441709170" type="building" color="255,230,230" fill="1" layer="-1.00" shape="1308.40,542.10 1302.25,537.37 1311.47,525.48 1317.62,530.21 1308.40,542.10"/>
    <poly id="441709171" type="building" color="255,230,230" fill="1" layer="-1.00" shape="1340.74,561.99 1325.78,550.56 1332.35,542.02 1341.34,548.90 1364.99,518.21 1375.96,526.59 1350.86,559.16 1345.86,555.34 1340.74,561.99"/>
    <poly id="441864296" type="building" color="255,230,230" fill="1" layer="-1.00" shape="1051.74,673.41 1030.71,656.92 1008.50,685.03 1029.52,701.51 1051.74,673.41"/>
    <poly id="442817411" type="building" color="255,230,230" fill="1" layer="-1.00" shape="1302.12,335.74 1318.93,327.46 1315.45,320.47 1298.65,328.74 1302.12,335.74"/>
    <poly id="442817412" type="building" color="255,230,230" fill="1" layer="-1.00" shape="1324.73,338.61 1308.16,346.93 1304.50,339.69 1321.06,331.38 1324.73,338.61"/>
    <poly id="442817414" type="building" color="255,230,230" fill="1" layer="-1.00" shape="1327.64,347.54 1318.40,352.20 1317.71,350.86 1312.35,353.57 1309.68,348.33 1324.29,340.96 1327.64,347.54"/>
    <poly id="442817417" type="building" color="255,230,230" fill="1" layer="-1.00" shape="1331.88,358.35 1328.48,351.48 1318.75,356.24 1322.14,363.12 1331.88,358.35"/>
    <poly id="442817419" type="building" color="255,230,230" fill="1" layer="-1.00" shape="1338.34,365.65 1323.54,372.95 1320.20,366.23 1335.00,358.93 1338.34,365.65"/>
    <poly id="442817425" type="building" color="255,230,230" fill="1" layer="-1.00" shape="1340.73,274.86 1328.18,281.55 1337.62,299.13 1350.17,292.42 1340.73,274.86"/>
    <poly id="442817427" type="building" color="255,230,230" fill="1" layer="-1.00" shape="1300.99,296.08 1288.07,302.72 1291.98,310.29 1306.50,302.83 1304.58,299.11 1302.98,299.93 1300.99,296.08"/>
    <poly id="442817429" type="building" color="255,230,230" fill="1" layer="-1.00" shape="1301.09,291.71 1281.96,301.87 1276.41,291.49 1295.54,281.32 1301.09,291.71"/>
    <poly id="442817433" type="building" color="255,230,230" fill="1" layer="-1.00" shape="1315.37,261.96 1325.83,256.63 1322.12,249.39 1317.12,251.93 1317.89,253.45 1312.43,256.22 1315.37,261.96"/>
    <poly id="442817435" type="building" color="255,230,230" fill="1" layer="-1.00" shape="1287.42,277.16 1296.16,272.54 1292.93,266.49 1284.20,271.10 1287.42,277.16"/>
    <poly id="442817437" type="building" color="255,230,230" fill="1" layer="-1.00" shape="1294.04,265.30 1291.93,261.21 1282.02,266.30 1284.13,270.38 1294.04,265.30"/>
    <poly id="442817439" type="building" color="255,230,230" fill="1" layer="-1.00" shape="1290.89,258.73 1285.42,261.56 1282.26,255.48 1287.72,252.65 1290.89,258.73"/>
    <poly id="442817441" type="building" color="255,230,230" fill="1" layer="-1.00" shape="1284.21,246.01 1277.99,249.35 1272.24,238.73 1278.46,235.40 1284.21,246.01"/>
    <poly id="442817443" type="building" color="255,230,230" fill="1" layer="-1.00" shape="1269.81,259.50 1262.19,244.85 1270.14,240.75 1279.78,259.28 1275.90,261.28 1273.88,257.39 1269.81,259.50"/>
    <poi id="2974468973" type="amenity" color="237,199,199" layer="4.00" x="1160.71" y="299.73"/>
    <poi id="3376088159" type="amenity" color="237,199,199" layer="4.00" x="1279.17" y="631.87"/>
    <poi id="357737408" type="amenity" color="237,199,199" layer="4.00" x="1138.42" y="377.67"/>
    <poi id="367685417" type="amenity" color="237,199,199" layer="4.00" x="1082.60" y="426.39"/>
    <poi id="4394189532" type="amenity" color="237,199,199" layer="4.00" x="1218.30" y="630.55"/>
    <poi id="4394189533" type="amenity" color="237,199,199" layer="4.00" x="1222.74" y="611.32"/>
    <poi id="4394189534" type="amenity" color="237,199,199" layer="4.00" x="1211.96" y="626.77"/>
    <poi id="4401382094" type="amenity" color="237,199,199" layer="4.00" x="1017.27" y="440.26"/>
    <poi id="4404698872" type="amenity" color="237,199,199" layer="4.00" x="1213.71" y="611.48"/>
    <poi id="4404698873" type="amenity" color="237,199,199" layer="4.00" x="1207.53" y="618.01"/>
    <poi id="4404698874" type="amenity" color="237,199,199" layer="4.00" x="1254.93" y="633.93"/>
    <poi id="4424423651" type="amenity" color="237,199,199" layer="4.00" x="1268.84" y="653.23"/>
</additional>
